*----------------------------------------------------------------------
* SPICE Netlist Generated by TDK Corporation
* Copyright(C) 2015 TDK Corporation.
* All Rights Reserved.
*----------------------------------------------------------------------
* TDK P/N: C2012X7R1H104K085AA (Multilayer Ceramic Chip Capacitor)
* Property: C=100nF
* Size(LxWxT): 2x1.25x0.85mm, 0.079x0.049x0.033inches
* Model Type: Precise Model
* Model Generated on June 29, 2015
*----------------------------------------------------------------------
* Terms and conditions regarding TDK Simulation Models:
* 1)This simulation model is being provided solely for informational
*   purposes. Please refer to the specifications of the products in
*   terms of detailed characteristics of such products.
* 2)In no event shall TDK Corporation of any of its subsidiaries be
*   liable for any loss or damage arising, directly or indirectly,
*   from any information contained in this simulation model, including,
*   but not limited to loss or damages arising from any inaccuracies,
*   omissions or errors in connection with such information.
* 3)Any and all copyrights on this simulation model are owned by
*   TDK Corporation.  Duplication or redistribution of this simulation
*   model without prior written permission from TDK Corporation
*   is prohibited.
* 4)This simulation model is subject to any modification or change
*   without any prior notice.
* 5)Neither TDK Corporation nor any of its subsidiaries shall make any
*   warranty, express or implied, including but not limited to the
*   correctness, implied warranties of merchantability and fitness for
*   a particular purpose with respect to this simulation models.
* 6)The use of this simulation model shall be deemed to have consented
*   to the terms and conditions hereof.
*----------------------------------------------------------------------
* External Node Assignments:
*
*  n1 ---| |--- n2
*
*----------------------------------------------------------------------
* Applicable Conditions:
*   Temperature = 25 degC
*   DC Bias Voltage = 0 V
*   Small Signal Operation
*----------------------------------------------------------------------
.SUBCKT C2012X7R1H104K085AA_p n1 n2
C1 n1 11 9.66996453E-08
C2 n1 12 7.84652848E-10
C3 n1 13 7.84652848E-10
C4 n1 14 7.84652848E-10
C5 n1 15 7.84652848E-10
C6 n1 16 7.84652848E-10
C7 n1 17 7.84652848E-10
L1 n2 21 4.80000000E-10
R1 11 21 1.55907844E-02
R2 11 12 2.03119343E+02
R3 11 13 1.30227944E+03
R4 11 14 8.34837355E+03
R5 11 15 5.35112646E+04
R6 11 16 3.42953359E+05
R7 11 17 2.19771939E+06
R8 n1 11 5.00000000E+09
.ENDS C2012X7R1H104K085AA_p
*----------------------------------------------------------------------
